
     RDKit          3D

 80 87  0  0  0  0  0  0  0  0999 V2000
   -1.3056   -1.9296   -1.7325 C   0  0  0  0  0  0  0  0  0  0  0  0
   -1.2120   -0.8819   -0.6245 C   0  0  0  0  0  0  0  0  0  0  0  0
   -2.2729   -1.1745    0.4438 C   0  0  0  0  0  0  0  0  0  0  0  0
   -2.2515   -2.0493    1.2960 O   0  0  0  0  0  0  0  0  0  0  0  0
   -3.2682   -0.2404    0.2514 N   0  0  0  0  0  0  0  0  0  0  0  0
   -4.2719    0.0771    1.2650 C   0  0  0  0  0  0  0  0  0  0  0  0
   -4.8611    1.5060    1.2588 C   0  0  0  0  0  0  0  0  0  0  0  0
   -5.7444    1.8364    2.0535 O   0  0  0  0  0  0  0  0  0  0  0  0
   -4.2750    2.4286    0.4186 N   0  0  0  0  0  0  0  0  0  0  0  0
   -4.1776    3.8168    0.8412 C   0  0  0  0  0  0  0  0  0  0  0  0
   -2.8880    4.3285    0.1938 C   0  0  0  0  0  0  0  0  0  0  0  0
   -2.1170    3.0490   -0.1543 C   0  0  0  0  0  0  0  0  0  0  0  0
   -3.2504    2.1228   -0.5813 C   0  0  0  0  0  0  0  0  0  0  0  0
   -2.9382    0.6299   -0.8209 C   0  0  0  0  0  0  0  0  0  0  0  0
   -1.5660    0.4025   -1.1393 O   0  0  0  0  0  0  0  0  0  0  0  0
   -3.7187    0.1925   -1.9188 O   0  0  0  0  0  0  0  0  0  0  0  0
   -5.3790   -0.9908    1.3885 C   0  0  0  0  0  0  0  0  0  0  0  0
   -6.0775   -1.3121    0.0863 C   0  0  0  0  0  0  0  0  0  0  0  0
   -5.7825   -2.5017   -0.5967 C   0  0  0  0  0  0  0  0  0  0  0  0
   -6.3915   -2.7845   -1.8203 C   0  0  0  0  0  0  0  0  0  0  0  0
   -7.3024   -1.8847   -2.3692 C   0  0  0  0  0  0  0  0  0  0  0  0
   -7.6108   -0.7059   -1.6931 C   0  0  0  0  0  0  0  0  0  0  0  0
   -7.0052   -0.4211   -0.4683 C   0  0  0  0  0  0  0  0  0  0  0  0
    0.1380   -0.8158   -0.1046 N   0  0  0  0  0  0  0  0  0  0  0  0
    0.4710    0.0211    0.9329 C   0  0  0  0  0  0  0  0  0  0  0  0
   -0.3603    0.6609    1.5725 O   0  0  0  0  0  0  0  0  0  0  0  0
    1.9516    0.0948    1.2774 C   0  0  0  0  0  0  0  0  0  0  0  0
    2.7933    0.6206    0.1170 C   0  0  0  0  0  0  0  0  0  0  0  0
    4.2716    0.8070    0.5358 C   0  0  0  0  0  0  0  0  0  0  0  0
    4.6588   -0.1569    1.7591 C   0  0  0  0  0  0  0  0  0  0  0  0
    6.2128   -0.2472    2.0079 C   0  0  0  0  0  0  0  0  0  0  0  0
    6.9775   -0.4302    0.7472 C   0  0  0  0  0  0  0  0  0  0  0  0
    8.2142   -0.9569    0.4544 C   0  0  0  0  0  0  0  0  0  0  0  0
    8.4267   -0.7874   -0.8992 N   0  0  0  0  0  0  0  0  0  0  0  0
    7.3537   -0.1428   -1.4757 C   0  0  0  0  0  0  0  0  0  0  0  0
    7.0996    0.2892   -2.7778 C   0  0  0  0  0  0  0  0  0  0  0  0
    5.8773    0.9456   -2.9936 C   0  0  0  0  0  0  0  0  0  0  0  0
    4.9473    1.1382   -1.9605 C   0  0  0  0  0  0  0  0  0  0  0  0
    5.1985    0.6666   -0.6627 C   0  0  0  0  0  0  0  0  0  0  0  0
    6.4382    0.0526   -0.4593 C   0  0  0  0  0  0  0  0  0  0  0  0
    3.9303   -1.4425    1.5905 N   0  0  0  0  0  0  0  0  0  0  0  0
    2.4734   -1.2663    1.7666 C   0  0  0  0  0  0  0  0  0  0  0  0
    4.4058   -2.5392    2.4271 C   0  0  0  0  0  0  0  0  0  0  0  0
   -0.9713   -2.9121   -1.3796 H   0  0  0  0  0  0  0  0  0  0  0  0
   -2.3295   -2.0429   -2.1039 H   0  0  0  0  0  0  0  0  0  0  0  0
   -0.6849   -1.6436   -2.5896 H   0  0  0  0  0  0  0  0  0  0  0  0
   -3.7219    0.0462    2.2185 H   0  0  0  0  0  0  0  0  0  0  0  0
   -4.1208    3.8719    1.9345 H   0  0  0  0  0  0  0  0  0  0  0  0
   -5.0608    4.3648    0.4983 H   0  0  0  0  0  0  0  0  0  0  0  0
   -2.3245    4.9934    0.8548 H   0  0  0  0  0  0  0  0  0  0  0  0
   -3.1263    4.8825   -0.7225 H   0  0  0  0  0  0  0  0  0  0  0  0
   -1.3778    3.2111   -0.9442 H   0  0  0  0  0  0  0  0  0  0  0  0
   -1.6079    2.6748    0.7397 H   0  0  0  0  0  0  0  0  0  0  0  0
   -3.6498    2.5282   -1.5240 H   0  0  0  0  0  0  0  0  0  0  0  0
   -4.2953   -0.5036   -1.5636 H   0  0  0  0  0  0  0  0  0  0  0  0
   -4.9403   -1.9144    1.7886 H   0  0  0  0  0  0  0  0  0  0  0  0
   -6.1357   -0.6891    2.1242 H   0  0  0  0  0  0  0  0  0  0  0  0
   -5.0746   -3.2157   -0.1790 H   0  0  0  0  0  0  0  0  0  0  0  0
   -6.1619   -3.7108   -2.3411 H   0  0  0  0  0  0  0  0  0  0  0  0
   -7.7814   -2.1061   -3.3200 H   0  0  0  0  0  0  0  0  0  0  0  0
   -8.3291   -0.0085   -2.1167 H   0  0  0  0  0  0  0  0  0  0  0  0
   -7.2699    0.4995    0.0494 H   0  0  0  0  0  0  0  0  0  0  0  0
    0.8769   -1.1158   -0.7250 H   0  0  0  0  0  0  0  0  0  0  0  0
    2.0352    0.8175    2.1022 H   0  0  0  0  0  0  0  0  0  0  0  0
    2.3863    1.5730   -0.2470 H   0  0  0  0  0  0  0  0  0  0  0  0
    2.7251   -0.0781   -0.7277 H   0  0  0  0  0  0  0  0  0  0  0  0
    4.3940    1.8355    0.9047 H   0  0  0  0  0  0  0  0  0  0  0  0
    4.2667    0.3036    2.6790 H   0  0  0  0  0  0  0  0  0  0  0  0
    6.5321    0.7066    2.4514 H   0  0  0  0  0  0  0  0  0  0  0  0
    6.4695   -1.0139    2.7449 H   0  0  0  0  0  0  0  0  0  0  0  0
    8.9675   -1.4207    1.0765 H   0  0  0  0  0  0  0  0  0  0  0  0
    9.2596   -1.0715   -1.3953 H   0  0  0  0  0  0  0  0  0  0  0  0
    7.8112    0.1434   -3.5823 H   0  0  0  0  0  0  0  0  0  0  0  0
    5.6458    1.3153   -3.9910 H   0  0  0  0  0  0  0  0  0  0  0  0
    4.0197    1.6592   -2.1836 H   0  0  0  0  0  0  0  0  0  0  0  0
    1.9724   -2.0914    1.2469 H   0  0  0  0  0  0  0  0  0  0  0  0
    2.1987   -1.3617    2.8262 H   0  0  0  0  0  0  0  0  0  0  0  0
    3.7737   -3.4263    2.2987 H   0  0  0  0  0  0  0  0  0  0  0  0
    5.4130   -2.8523    2.1344 H   0  0  0  0  0  0  0  0  0  0  0  0
    4.4045   -2.2729    3.4890 H   0  0  0  0  0  0  0  0  0  0  0  0
  1  2  1  0
  2  3  1  0
  3  4  2  0
  3  5  1  0
  5  6  1  0
  6  7  1  0
  7  8  2  0
  7  9  1  0
  9 10  1  0
 10 11  1  0
 11 12  1  0
 12 13  1  0
 13 14  1  0
 14 15  1  0
 14 16  1  0
  6 17  1  0
 17 18  1  0
 18 19  2  0
 19 20  1  0
 20 21  2  0
 21 22  1  0
 22 23  2  0
  2 24  1  0
 24 25  1  0
 25 26  2  0
 25 27  1  0
 27 28  1  0
 28 29  1  0
 29 30  1  0
 30 31  1  0
 31 32  1  0
 32 33  2  0
 33 34  1  0
 34 35  1  0
 35 36  2  0
 36 37  1  0
 37 38  2  0
 38 39  1  0
 39 40  2  0
 30 41  1  0
 41 42  1  0
 41 43  1  0
 15  2  1  0
 14  5  1  0
 13  9  1  0
 23 18  1  0
 42 27  1  0
 39 29  1  0
 40 32  1  0
 40 35  1  0
  1 44  1  0
  1 45  1  0
  1 46  1  0
  6 47  1  0
 10 48  1  0
 10 49  1  0
 11 50  1  0
 11 51  1  0
 12 52  1  0
 12 53  1  0
 13 54  1  0
 16 55  1  0
 17 56  1  0
 17 57  1  0
 19 58  1  0
 20 59  1  0
 21 60  1  0
 22 61  1  0
 23 62  1  0
 24 63  1  0
 27 64  1  0
 28 65  1  0
 28 66  1  0
 29 67  1  0
 30 68  1  0
 31 69  1  0
 31 70  1  0
 33 71  1  0
 34 72  1  0
 36 73  1  0
 37 74  1  0
 38 75  1  0
 42 76  1  0
 42 77  1  0
 43 78  1  0
 43 79  1  0
 43 80  1  0
M  END
$$$$
