
     RDKit          3D

 94 99  0  0  0  0  0  0  0  0999 V2000
   -7.8305   -0.7437    0.8704 O   0  0  0  0  0  0  0  0  0  0  0  0
   -6.8953   -0.9901    1.9289 C   0  0  0  0  0  0  0  0  0  0  0  0
   -5.8670   -2.0352    1.4633 C   0  0  0  0  0  0  0  0  0  0  0  0
   -5.1563   -1.5073    0.3280 O   0  0  0  0  0  0  0  0  0  0  0  0
   -3.8751   -0.9344    0.5866 C   0  0  0  0  0  0  0  0  0  0  0  0
   -3.7344    0.1903   -0.2881 O   0  0  0  0  0  0  0  0  0  0  0  0
   -3.2953   -0.1195   -1.6224 C   0  0  0  0  0  0  0  0  0  0  0  0
   -4.4933   -0.1372   -2.5819 C   0  0  0  0  0  0  0  0  0  0  0  0
   -5.4315   -1.1926   -2.3238 O   0  0  0  0  0  0  0  0  0  0  0  0
   -5.2412    1.2047   -2.5391 C   0  0  0  0  0  0  0  0  0  0  0  0
   -6.1061    1.2683   -3.6833 O   0  0  0  0  0  0  0  0  0  0  0  0
   -4.2376    2.3750   -2.4831 C   0  0  0  0  0  0  0  0  0  0  0  0
   -4.6814    3.5852   -3.3108 C   0  0  0  0  0  0  0  0  0  0  0  0
   -3.7294    4.6449   -3.1812 O   0  0  0  0  0  0  0  0  0  0  0  0
   -2.9411    1.9618   -2.9750 O   0  0  0  0  0  0  0  0  0  0  0  0
   -2.3058    0.9877   -2.1150 C   0  0  0  0  0  0  0  0  0  0  0  0
   -1.6671    1.6759   -1.0288 O   0  0  0  0  0  0  0  0  0  0  0  0
   -0.3222    1.3878   -0.9019 C   0  0  0  0  0  0  0  0  0  0  0  0
    0.6327    2.3302   -0.9993 C   0  0  0  0  0  0  0  0  0  0  0  0
    1.9830    2.1092   -0.8187 O   0  0  0  0  0  0  0  0  0  0  0  0
    2.4127    0.8308   -0.5854 C   0  0  0  0  0  0  0  0  0  0  0  0
    3.7944    0.6552   -0.5075 C   0  0  0  0  0  0  0  0  0  0  0  0
    4.3276   -0.6108   -0.2719 C   0  0  0  0  0  0  0  0  0  0  0  0
    5.6888   -0.6771   -0.2388 O   0  0  0  0  0  0  0  0  0  0  0  0
    6.2738   -1.5858    0.7168 C   0  0  0  0  0  0  0  0  0  0  0  0
    7.1441   -0.8152    1.5534 O   0  0  0  0  0  0  0  0  0  0  0  0
    7.9056   -1.5610    2.5194 C   0  0  0  0  0  0  0  0  0  0  0  0
    7.0353   -2.0052    3.7034 C   0  0  0  0  0  0  0  0  0  0  0  0
    6.2463   -3.1521    3.3909 O   0  0  0  0  0  0  0  0  0  0  0  0
    8.7002   -2.7069    1.8702 C   0  0  0  0  0  0  0  0  0  0  0  0
    9.8062   -2.1461    1.1342 O   0  0  0  0  0  0  0  0  0  0  0  0
    7.8533   -3.5433    0.9082 C   0  0  0  0  0  0  0  0  0  0  0  0
    8.7200   -4.4012    0.1330 O   0  0  0  0  0  0  0  0  0  0  0  0
    7.0627   -2.6585   -0.0603 C   0  0  0  0  0  0  0  0  0  0  0  0
    6.1969   -3.5174   -0.8341 O   0  0  0  0  0  0  0  0  0  0  0  0
    3.4754   -1.7101   -0.1685 C   0  0  0  0  0  0  0  0  0  0  0  0
    2.0892   -1.5246   -0.2377 C   0  0  0  0  0  0  0  0  0  0  0  0
    1.2748   -2.6171   -0.1357 O   0  0  0  0  0  0  0  0  0  0  0  0
    1.5487   -0.2494   -0.4306 C   0  0  0  0  0  0  0  0  0  0  0  0
    0.0944    0.0178   -0.4853 C   0  0  0  0  0  0  0  0  0  0  0  0
   -0.7621   -0.8100   -0.1807 O   0  0  0  0  0  0  0  0  0  0  0  0
    0.3155    3.7357   -1.2846 C   0  0  0  0  0  0  0  0  0  0  0  0
   -0.0785    4.1405   -2.5696 C   0  0  0  0  0  0  0  0  0  0  0  0
   -0.3822    5.4815   -2.8234 C   0  0  0  0  0  0  0  0  0  0  0  0
   -0.2811    6.4124   -1.7875 C   0  0  0  0  0  0  0  0  0  0  0  0
   -0.5901    7.7266   -1.9872 O   0  0  0  0  0  0  0  0  0  0  0  0
    0.1244    6.0294   -0.5164 C   0  0  0  0  0  0  0  0  0  0  0  0
    0.4184    4.6882   -0.2636 C   0  0  0  0  0  0  0  0  0  0  0  0
   -3.6225   -0.4181    2.0266 C   0  0  0  0  0  0  0  0  0  0  0  0
   -2.2285   -0.0948    2.2224 O   0  0  0  0  0  0  0  0  0  0  0  0
   -4.0434   -1.4277    3.1041 C   0  0  0  0  0  0  0  0  0  0  0  0
   -4.7776   -0.7461    4.1381 O   0  0  0  0  0  0  0  0  0  0  0  0
   -4.9179   -2.5555    2.5484 C   0  0  0  0  0  0  0  0  0  0  0  0
   -5.6075   -3.1939    3.6293 O   0  0  0  0  0  0  0  0  0  0  0  0
   -7.2992   -0.5605    0.0777 H   0  0  0  0  0  0  0  0  0  0  0  0
   -6.4332   -0.0283    2.1661 H   0  0  0  0  0  0  0  0  0  0  0  0
   -7.4677   -1.3347    2.7929 H   0  0  0  0  0  0  0  0  0  0  0  0
   -6.4447   -2.8862    1.0744 H   0  0  0  0  0  0  0  0  0  0  0  0
   -3.1117   -1.6876    0.3570 H   0  0  0  0  0  0  0  0  0  0  0  0
   -2.7937   -1.0939   -1.6323 H   0  0  0  0  0  0  0  0  0  0  0  0
   -4.1369   -0.3273   -3.6010 H   0  0  0  0  0  0  0  0  0  0  0  0
   -5.3489   -1.4354   -1.3744 H   0  0  0  0  0  0  0  0  0  0  0  0
   -5.9110    1.2598   -1.6719 H   0  0  0  0  0  0  0  0  0  0  0  0
   -6.5855    0.4165   -3.7060 H   0  0  0  0  0  0  0  0  0  0  0  0
   -4.0879    2.6978   -1.4434 H   0  0  0  0  0  0  0  0  0  0  0  0
   -4.7383    3.3492   -4.3800 H   0  0  0  0  0  0  0  0  0  0  0  0
   -5.6507    3.9661   -2.9723 H   0  0  0  0  0  0  0  0  0  0  0  0
   -2.8594    4.2052   -3.1048 H   0  0  0  0  0  0  0  0  0  0  0  0
   -1.5639    0.5089   -2.7665 H   0  0  0  0  0  0  0  0  0  0  0  0
    4.4563    1.5070   -0.6255 H   0  0  0  0  0  0  0  0  0  0  0  0
    5.4981   -2.0351    1.3429 H   0  0  0  0  0  0  0  0  0  0  0  0
    8.6257   -0.8309    2.9163 H   0  0  0  0  0  0  0  0  0  0  0  0
    7.6725   -2.2739    4.5484 H   0  0  0  0  0  0  0  0  0  0  0  0
    6.3554   -1.1991    4.0002 H   0  0  0  0  0  0  0  0  0  0  0  0
    5.6687   -3.3112    4.1602 H   0  0  0  0  0  0  0  0  0  0  0  0
    9.1586   -3.3503    2.6283 H   0  0  0  0  0  0  0  0  0  0  0  0
   10.0226   -2.7894    0.4312 H   0  0  0  0  0  0  0  0  0  0  0  0
    7.1660   -4.2053    1.4429 H   0  0  0  0  0  0  0  0  0  0  0  0
    9.0901   -5.0643    0.7495 H   0  0  0  0  0  0  0  0  0  0  0  0
    7.7405   -2.1734   -0.7780 H   0  0  0  0  0  0  0  0  0  0  0  0
    6.7954   -4.1609   -1.2601 H   0  0  0  0  0  0  0  0  0  0  0  0
    3.8821   -2.7128   -0.0537 H   0  0  0  0  0  0  0  0  0  0  0  0
    1.8143   -3.4166   -0.0446 H   0  0  0  0  0  0  0  0  0  0  0  0
   -0.1600    3.4177   -3.3777 H   0  0  0  0  0  0  0  0  0  0  0  0
   -0.6911    5.7792   -3.8197 H   0  0  0  0  0  0  0  0  0  0  0  0
   -1.0328    7.8074   -2.8471 H   0  0  0  0  0  0  0  0  0  0  0  0
    0.2025    6.7627    0.2798 H   0  0  0  0  0  0  0  0  0  0  0  0
    0.7295    4.3938    0.7355 H   0  0  0  0  0  0  0  0  0  0  0  0
   -4.1591    0.5276    2.1655 H   0  0  0  0  0  0  0  0  0  0  0  0
   -1.7672   -0.1856    1.3589 H   0  0  0  0  0  0  0  0  0  0  0  0
   -3.1714   -1.8582    3.6104 H   0  0  0  0  0  0  0  0  0  0  0  0
   -5.1460   -1.4594    4.7007 H   0  0  0  0  0  0  0  0  0  0  0  0
   -4.2555   -3.3050    2.0959 H   0  0  0  0  0  0  0  0  0  0  0  0
   -6.0848   -3.9649    3.2698 H   0  0  0  0  0  0  0  0  0  0  0  0
  1  2  1  0
  2  3  1  0
  3  4  1  0
  4  5  1  0
  5  6  1  0
  6  7  1  0
  7  8  1  0
  8  9  1  0
  8 10  1  0
 10 11  1  0
 10 12  1  0
 12 13  1  0
 13 14  1  0
 12 15  1  0
 15 16  1  0
 16 17  1  0
 17 18  1  0
 18 19  2  0
 19 20  1  0
 20 21  1  0
 21 22  2  0
 22 23  1  0
 23 24  1  0
 24 25  1  0
 25 26  1  0
 26 27  1  0
 27 28  1  0
 28 29  1  0
 27 30  1  0
 30 31  1  0
 30 32  1  0
 32 33  1  0
 32 34  1  0
 34 35  1  0
 23 36  2  0
 36 37  1  0
 37 38  1  0
 37 39  2  0
 39 40  1  0
 40 41  2  0
 19 42  1  0
 42 43  2  0
 43 44  1  0
 44 45  2  0
 45 46  1  0
 45 47  1  0
 47 48  2  0
  5 49  1  0
 49 50  1  0
 49 51  1  0
 51 52  1  0
 51 53  1  0
 53 54  1  0
 53  3  1  0
 16  7  1  0
 40 18  1  0
 48 42  1  0
 39 21  1  0
 34 25  1  0
  1 55  1  0
  2 56  1  0
  2 57  1  0
  3 58  1  0
  5 59  1  0
  7 60  1  0
  8 61  1  0
  9 62  1  0
 10 63  1  0
 11 64  1  0
 12 65  1  0
 13 66  1  0
 13 67  1  0
 14 68  1  0
 16 69  1  0
 22 70  1  0
 25 71  1  0
 27 72  1  0
 28 73  1  0
 28 74  1  0
 29 75  1  0
 30 76  1  0
 31 77  1  0
 32 78  1  0
 33 79  1  0
 34 80  1  0
 35 81  1  0
 36 82  1  0
 38 83  1  0
 43 84  1  0
 44 85  1  0
 46 86  1  0
 47 87  1  0
 48 88  1  0
 49 89  1  0
 50 90  1  0
 51 91  1  0
 52 92  1  0
 53 93  1  0
 54 94  1  0
M  END
$$$$
