
     RDKit          3D

 62 65  0  0  0  0  0  0  0  0999 V2000
   -6.4077    0.0236   -0.1213 C   0  0  0  0  0  0  0  0  0  0  0  0
   -4.9360    0.4468   -0.0152 C   0  0  0  0  0  0  0  0  0  0  0  0
   -4.5058    0.0030    1.2698 O   0  0  0  0  0  0  0  0  0  0  0  0
   -3.0905   -0.0393    1.4169 C   0  0  0  0  0  0  0  0  0  0  0  0
   -2.4514   -0.9601    0.3557 C   0  0  0  0  0  0  0  0  0  0  0  0
   -0.8704   -1.0329    0.5310 C   0  0  0  0  0  0  0  0  0  0  0  0
   -0.2686   -2.4157    0.1497 C   0  0  0  0  0  0  0  0  0  0  0  0
    1.1740   -2.5879    0.6512 C   0  0  0  0  0  0  0  0  0  0  0  0
    1.9229   -1.2810    0.6636 C   0  0  0  0  0  0  0  0  0  0  0  0
    2.8170   -1.0077    1.6270 C   0  0  0  0  0  0  0  0  0  0  0  0
    1.4868   -0.3553   -0.4589 C   0  0  0  0  0  0  0  0  0  0  0  0
   -0.0099    0.1265   -0.1728 C   0  0  0  0  0  0  0  0  0  0  0  0
   -0.6243    0.5166   -1.5424 C   0  0  0  0  0  0  0  0  0  0  0  0
   -2.1145    0.7954   -1.4961 C   0  0  0  0  0  0  0  0  0  0  0  0
   -2.8841   -0.4300   -1.0213 C   0  0  0  0  0  0  0  0  0  0  0  0
   -4.2917   -0.2108   -1.1076 O   0  0  0  0  0  0  0  0  0  0  0  0
    0.0309    1.3705    0.7488 C   0  0  0  0  0  0  0  0  0  0  0  0
    2.4862    0.7787   -0.8320 C   0  0  0  0  0  0  0  0  0  0  0  0
    3.7634    0.2553   -1.4427 C   0  0  0  0  0  0  0  0  0  0  0  0
    5.0082    0.6210   -1.0987 C   0  0  0  0  0  0  0  0  0  0  0  0
    5.4800    1.5720   -0.0673 C   0  0  0  0  0  0  0  0  0  0  0  0
    6.9104    1.1129    0.1297 C   0  0  0  0  0  0  0  0  0  0  0  0
    7.3059    0.4966   -1.1019 O   0  0  0  0  0  0  0  0  0  0  0  0
    6.2026    0.0550   -1.7663 C   0  0  0  0  0  0  0  0  0  0  0  0
    6.2103   -0.6487   -2.7585 O   0  0  0  0  0  0  0  0  0  0  0  0
    5.4285    2.9034   -0.5724 O   0  0  0  0  0  0  0  0  0  0  0  0
   -3.1161   -2.3567    0.5543 C   0  0  0  0  0  0  0  0  0  0  0  0
   -4.8872    1.9732   -0.1256 C   0  0  0  0  0  0  0  0  0  0  0  0
   -7.0082    0.4433    0.6932 H   0  0  0  0  0  0  0  0  0  0  0  0
   -6.4968   -1.0675   -0.0548 H   0  0  0  0  0  0  0  0  0  0  0  0
   -6.8427    0.3236   -1.0810 H   0  0  0  0  0  0  0  0  0  0  0  0
   -2.8848   -0.4218    2.4234 H   0  0  0  0  0  0  0  0  0  0  0  0
   -2.7140    0.9809    1.3944 H   0  0  0  0  0  0  0  0  0  0  0  0
   -0.6950   -0.9474    1.6149 H   0  0  0  0  0  0  0  0  0  0  0  0
   -0.3105   -2.5471   -0.9389 H   0  0  0  0  0  0  0  0  0  0  0  0
   -0.8300   -3.2472    0.5840 H   0  0  0  0  0  0  0  0  0  0  0  0
    1.1474   -3.0166    1.6611 H   0  0  0  0  0  0  0  0  0  0  0  0
    1.6934   -3.3093    0.0095 H   0  0  0  0  0  0  0  0  0  0  0  0
    3.0456   -1.7344    2.4022 H   0  0  0  0  0  0  0  0  0  0  0  0
    3.3322   -0.0583    1.6935 H   0  0  0  0  0  0  0  0  0  0  0  0
    1.4503   -0.9924   -1.3574 H   0  0  0  0  0  0  0  0  0  0  0  0
   -0.4506   -0.2871   -2.2700 H   0  0  0  0  0  0  0  0  0  0  0  0
   -0.1265    1.4054   -1.9469 H   0  0  0  0  0  0  0  0  0  0  0  0
   -2.4674    1.0751   -2.4969 H   0  0  0  0  0  0  0  0  0  0  0  0
   -2.3008    1.6701   -0.8741 H   0  0  0  0  0  0  0  0  0  0  0  0
   -2.6804   -1.2168   -1.7606 H   0  0  0  0  0  0  0  0  0  0  0  0
   -0.9563    1.7742    0.9634 H   0  0  0  0  0  0  0  0  0  0  0  0
    0.5851    2.1965    0.2915 H   0  0  0  0  0  0  0  0  0  0  0  0
    0.5065    1.1389    1.7076 H   0  0  0  0  0  0  0  0  0  0  0  0
    2.6998    1.4120    0.0350 H   0  0  0  0  0  0  0  0  0  0  0  0
    2.0329    1.4302   -1.5871 H   0  0  0  0  0  0  0  0  0  0  0  0
    3.6404   -0.4642   -2.2534 H   0  0  0  0  0  0  0  0  0  0  0  0
    4.9238    1.5421    0.8722 H   0  0  0  0  0  0  0  0  0  0  0  0
    7.5909    1.9436    0.3400 H   0  0  0  0  0  0  0  0  0  0  0  0
    6.9989    0.3627    0.9236 H   0  0  0  0  0  0  0  0  0  0  0  0
    5.8533    2.9182   -1.4489 H   0  0  0  0  0  0  0  0  0  0  0  0
   -2.8271   -3.0569   -0.2372 H   0  0  0  0  0  0  0  0  0  0  0  0
   -4.2101   -2.3148    0.5252 H   0  0  0  0  0  0  0  0  0  0  0  0
   -2.8408   -2.7866    1.5241 H   0  0  0  0  0  0  0  0  0  0  0  0
   -5.1027    2.3044   -1.1467 H   0  0  0  0  0  0  0  0  0  0  0  0
   -3.9179    2.3853    0.1602 H   0  0  0  0  0  0  0  0  0  0  0  0
   -5.6069    2.4373    0.5588 H   0  0  0  0  0  0  0  0  0  0  0  0
  1  2  1  0
  2  3  1  0
  3  4  1  0
  4  5  1  0
  5  6  1  0
  6  7  1  0
  7  8  1  0
  8  9  1  0
  9 10  2  0
  9 11  1  0
 11 12  1  0
 12 13  1  0
 13 14  1  0
 14 15  1  0
 15 16  1  0
 12 17  1  0
 11 18  1  0
 18 19  1  0
 19 20  2  3
 20 21  1  0
 21 22  1  0
 22 23  1  0
 23 24  1  0
 24 25  2  0
 21 26  1  0
  5 27  1  0
  2 28  1  0
 16  2  1  0
 15  5  1  0
 12  6  1  0
 24 20  1  0
  1 29  1  0
  1 30  1  0
  1 31  1  0
  4 32  1  0
  4 33  1  0
  6 34  1  0
  7 35  1  0
  7 36  1  0
  8 37  1  0
  8 38  1  0
 10 39  1  0
 10 40  1  0
 11 41  1  0
 13 42  1  0
 13 43  1  0
 14 44  1  0
 14 45  1  0
 15 46  1  0
 17 47  1  0
 17 48  1  0
 17 49  1  0
 18 50  1  0
 18 51  1  0
 19 52  1  0
 21 53  1  0
 22 54  1  0
 22 55  1  0
 26 56  1  0
 27 57  1  0
 27 58  1  0
 27 59  1  0
 28 60  1  0
 28 61  1  0
 28 62  1  0
M  END
$$$$
