
     RDKit          3D

 38 41  0  0  0  0  0  0  0  0999 V2000
   -6.3835   -0.3077    1.4094 C   0  0  0  0  0  0  0  0  0  0  0  0
   -6.1392   -0.2856    0.0075 O   0  0  0  0  0  0  0  0  0  0  0  0
   -4.8555   -0.0161   -0.3924 C   0  0  0  0  0  0  0  0  0  0  0  0
   -4.6674    0.0180   -1.7820 C   0  0  0  0  0  0  0  0  0  0  0  0
   -3.4261    0.2791   -2.3447 C   0  0  0  0  0  0  0  0  0  0  0  0
   -2.3540    0.5086   -1.4914 C   0  0  0  0  0  0  0  0  0  0  0  0
   -2.5012    0.4796   -0.1068 C   0  0  0  0  0  0  0  0  0  0  0  0
   -3.7617    0.2158    0.4464 C   0  0  0  0  0  0  0  0  0  0  0  0
   -1.3319    0.7140    0.7228 C   0  0  0  0  0  0  0  0  0  0  0  0
   -0.1339    0.9499    0.1720 C   0  0  0  0  0  0  0  0  0  0  0  0
    0.0263    1.0563   -1.3115 C   0  0  0  0  0  0  0  0  0  0  0  0
    1.0854    1.3695   -1.8440 O   0  0  0  0  0  0  0  0  0  0  0  0
   -1.1048    0.7815   -2.0773 O   0  0  0  0  0  0  0  0  0  0  0  0
    0.9549    1.1810    1.0109 O   0  0  0  0  0  0  0  0  0  0  0  0
    2.1079    0.4626    0.7952 C   0  0  0  0  0  0  0  0  0  0  0  0
    3.3106    1.1473    0.9556 C   0  0  0  0  0  0  0  0  0  0  0  0
    4.5072    0.4579    0.7790 C   0  0  0  0  0  0  0  0  0  0  0  0
    4.5315   -0.8986    0.4587 C   0  0  0  0  0  0  0  0  0  0  0  0
    3.3219   -1.5827    0.3215 C   0  0  0  0  0  0  0  0  0  0  0  0
    2.1096   -0.9053    0.4978 C   0  0  0  0  0  0  0  0  0  0  0  0
    5.8150   -1.5572    0.2814 C   0  0  0  0  0  0  0  0  0  0  0  0
    6.9412   -0.8538    0.4337 C   0  0  0  0  0  0  0  0  0  0  0  0
    6.9400    0.5782    0.7819 C   0  0  0  0  0  0  0  0  0  0  0  0
    7.9946    1.1863    0.9250 O   0  0  0  0  0  0  0  0  0  0  0  0
    5.7025    1.1861    0.9413 O   0  0  0  0  0  0  0  0  0  0  0  0
   -5.7222   -0.2080   -2.6238 O   0  0  0  0  0  0  0  0  0  0  0  0
   -6.1731    0.6670    1.8619 H   0  0  0  0  0  0  0  0  0  0  0  0
   -5.8100   -1.1032    1.8964 H   0  0  0  0  0  0  0  0  0  0  0  0
   -7.4458   -0.5227    1.5597 H   0  0  0  0  0  0  0  0  0  0  0  0
   -3.3018    0.3051   -3.4221 H   0  0  0  0  0  0  0  0  0  0  0  0
   -3.8676    0.1947    1.5259 H   0  0  0  0  0  0  0  0  0  0  0  0
   -1.4411    0.6781    1.8016 H   0  0  0  0  0  0  0  0  0  0  0  0
    3.3166    2.2047    1.2008 H   0  0  0  0  0  0  0  0  0  0  0  0
    3.3073   -2.6426    0.0795 H   0  0  0  0  0  0  0  0  0  0  0  0
    1.1796   -1.4587    0.4052 H   0  0  0  0  0  0  0  0  0  0  0  0
    5.8407   -2.6101    0.0239 H   0  0  0  0  0  0  0  0  0  0  0  0
    7.9177   -1.3054    0.3084 H   0  0  0  0  0  0  0  0  0  0  0  0
   -6.4899   -0.3635   -2.0395 H   0  0  0  0  0  0  0  0  0  0  0  0
  1  2  1  0
  2  3  1  0
  3  4  2  0
  4  5  1  0
  5  6  2  0
  6  7  1  0
  7  8  2  0
  7  9  1  0
  9 10  2  0
 10 11  1  0
 11 12  2  0
 11 13  1  0
 10 14  1  0
 14 15  1  0
 15 16  2  0
 16 17  1  0
 17 18  2  0
 18 19  1  0
 19 20  2  0
 18 21  1  0
 21 22  2  0
 22 23  1  0
 23 24  2  0
 23 25  1  0
  4 26  1  0
  8  3  1  0
 13  6  1  0
 20 15  1  0
 25 17  1  0
  1 27  1  0
  1 28  1  0
  1 29  1  0
  5 30  1  0
  8 31  1  0
  9 32  1  0
 16 33  1  0
 19 34  1  0
 20 35  1  0
 21 36  1  0
 22 37  1  0
 26 38  1  0
M  END
$$$$
