
     RDKit          3D

 55 57  0  0  0  0  0  0  0  0999 V2000
   -0.0719    1.5963   -0.2458 C   0  0  0  0  0  0  0  0  0  0  0  0
   -0.4657    0.1519    0.1914 C   0  0  0  0  0  0  0  0  0  0  0  0
   -0.7476    0.1208    1.7187 C   0  0  0  0  0  0  0  0  0  0  0  0
   -2.0302    0.8275    2.1492 C   0  0  0  0  0  0  0  0  0  0  0  0
   -3.2531    0.2883    1.4186 C   0  0  0  0  0  0  0  0  0  0  0  0
   -3.1361    0.3975   -0.1283 C   0  0  0  0  0  0  0  0  0  0  0  0
   -1.7803   -0.2975   -0.6112 C   0  0  0  0  0  0  0  0  0  0  0  0
   -1.9437   -1.8427   -0.6459 C   0  0  0  0  0  0  0  0  0  0  0  0
   -0.6913   -2.5776   -1.0849 C   0  0  0  0  0  0  0  0  0  0  0  0
    0.4056   -2.2564   -0.1175 C   0  0  0  0  0  0  0  0  0  0  0  0
    0.9166   -3.2280    0.6586 C   0  0  0  0  0  0  0  0  0  0  0  0
    0.7934   -0.7792   -0.1384 C   0  0  0  0  0  0  0  0  0  0  0  0
    2.0580   -0.4521    0.7235 C   0  0  0  0  0  0  0  0  0  0  0  0
    3.3421   -0.9176    0.0788 C   0  0  0  0  0  0  0  0  0  0  0  0
    4.3375   -0.1216   -0.3429 C   0  0  0  0  0  0  0  0  0  0  0  0
    4.4469    1.3548   -0.3410 C   0  0  0  0  0  0  0  0  0  0  0  0
    5.5247    1.5789   -1.3822 C   0  0  0  0  0  0  0  0  0  0  0  0
    6.3133    0.3829   -1.4090 O   0  0  0  0  0  0  0  0  0  0  0  0
    5.5742   -0.6640   -0.9500 C   0  0  0  0  0  0  0  0  0  0  0  0
    5.9000   -1.8347   -1.0022 O   0  0  0  0  0  0  0  0  0  0  0  0
    4.8625    1.8140    0.9414 O   0  0  0  0  0  0  0  0  0  0  0  0
   -4.3845   -0.3028   -0.7410 C   0  0  0  0  0  0  0  0  0  0  0  0
   -3.2043    1.8766   -0.6103 C   0  0  0  0  0  0  0  0  0  0  0  0
   -4.4163    2.5209   -0.2152 O   0  0  0  0  0  0  0  0  0  0  0  0
   -4.4132    0.9450    1.9269 O   0  0  0  0  0  0  0  0  0  0  0  0
   -0.3899    1.8033   -1.2733 H   0  0  0  0  0  0  0  0  0  0  0  0
    1.0050    1.7748   -0.2428 H   0  0  0  0  0  0  0  0  0  0  0  0
   -0.4853    2.3644    0.4108 H   0  0  0  0  0  0  0  0  0  0  0  0
   -0.8067   -0.9199    2.0612 H   0  0  0  0  0  0  0  0  0  0  0  0
    0.0856    0.5758    2.2677 H   0  0  0  0  0  0  0  0  0  0  0  0
   -2.1688    0.6896    3.2296 H   0  0  0  0  0  0  0  0  0  0  0  0
   -1.9499    1.9120    2.0185 H   0  0  0  0  0  0  0  0  0  0  0  0
   -3.3704   -0.7654    1.6982 H   0  0  0  0  0  0  0  0  0  0  0  0
   -1.6291   -0.0078   -1.6618 H   0  0  0  0  0  0  0  0  0  0  0  0
   -2.7260   -2.1197   -1.3611 H   0  0  0  0  0  0  0  0  0  0  0  0
   -2.2597   -2.2158    0.3356 H   0  0  0  0  0  0  0  0  0  0  0  0
   -0.8979   -3.6539   -1.1240 H   0  0  0  0  0  0  0  0  0  0  0  0
   -0.4000   -2.2794   -2.0992 H   0  0  0  0  0  0  0  0  0  0  0  0
    0.5547   -4.2511    0.5909 H   0  0  0  0  0  0  0  0  0  0  0  0
    1.6976   -3.0612    1.3912 H   0  0  0  0  0  0  0  0  0  0  0  0
    1.0660   -0.5583   -1.1830 H   0  0  0  0  0  0  0  0  0  0  0  0
    1.9816   -0.9094    1.7173 H   0  0  0  0  0  0  0  0  0  0  0  0
    2.1340    0.6181    0.9293 H   0  0  0  0  0  0  0  0  0  0  0  0
    3.4629   -1.9960   -0.0260 H   0  0  0  0  0  0  0  0  0  0  0  0
    3.5248    1.8760   -0.6109 H   0  0  0  0  0  0  0  0  0  0  0  0
    6.1761    2.4228   -1.1353 H   0  0  0  0  0  0  0  0  0  0  0  0
    5.1068    1.7263   -2.3844 H   0  0  0  0  0  0  0  0  0  0  0  0
    5.6190    1.2745    1.2340 H   0  0  0  0  0  0  0  0  0  0  0  0
   -4.3151   -0.3364   -1.8341 H   0  0  0  0  0  0  0  0  0  0  0  0
   -5.3173    0.2115   -0.4862 H   0  0  0  0  0  0  0  0  0  0  0  0
   -4.5053   -1.3261   -0.3703 H   0  0  0  0  0  0  0  0  0  0  0  0
   -3.1168    1.9434   -1.7008 H   0  0  0  0  0  0  0  0  0  0  0  0
   -2.4179    2.4894   -0.1823 H   0  0  0  0  0  0  0  0  0  0  0  0
   -5.0775    2.3516   -0.9111 H   0  0  0  0  0  0  0  0  0  0  0  0
   -4.5172    1.7857    1.4324 H   0  0  0  0  0  0  0  0  0  0  0  0
  1  2  1  0
  2  3  1  0
  3  4  1  0
  4  5  1  0
  5  6  1  0
  6  7  1  0
  7  8  1  0
  8  9  1  0
  9 10  1  0
 10 11  2  0
 10 12  1  0
 12 13  1  0
 13 14  1  0
 14 15  2  3
 15 16  1  0
 16 17  1  0
 17 18  1  0
 18 19  1  0
 19 20  2  0
 16 21  1  0
  6 22  1  0
  6 23  1  0
 23 24  1  0
  5 25  1  0
  7  2  1  0
 12  2  1  0
 19 15  1  0
  1 26  1  0
  1 27  1  0
  1 28  1  0
  3 29  1  0
  3 30  1  0
  4 31  1  0
  4 32  1  0
  5 33  1  0
  7 34  1  0
  8 35  1  0
  8 36  1  0
  9 37  1  0
  9 38  1  0
 11 39  1  0
 11 40  1  0
 12 41  1  0
 13 42  1  0
 13 43  1  0
 14 44  1  0
 16 45  1  0
 17 46  1  0
 17 47  1  0
 21 48  1  0
 22 49  1  0
 22 50  1  0
 22 51  1  0
 23 52  1  0
 23 53  1  0
 24 54  1  0
 25 55  1  0
M  END
$$$$
